<routes>
    <vType id="standard_car" accel="2.6" decel="4.5" sigma="0.5" length="5" maxSpeed="20"/>
    
    <route id="route_NS" edges="-E10 E11" />

    <flow id="flow_NS" type="standard_car" route="route_NS" begin="0" end="3600" vehsPerHour="1000" departLane="best" />
    <flow id="flow_EW" type="standard_car" begin="0" end="3600" vehsPerHour="800" from="-E12" to="E13" departLane="best" />
    <flow id="flow_SN" type="standard_car" begin="0" end="3600" vehsPerHour="1000" from="-E11" to="E10" departLane="best" />
    <flow id="flow_WE" type="standard_car" begin="0" end="3600" vehsPerHour="800" from="-E13" to="E12" departLane="best" />

    <vehicle id="broken_car" type="standard_car" route="route_NS" depart="30" departLane="0" departPos="free" color="red">
        <stop lane="-E10_0" endPos="15" duration="2000"/>
    </vehicle>

</routes>