<?xml version="1.0" encoding="UTF-8"?>

<!-- generated on 2026-04-07T16:11:59.018759+05:30 by Eclipse SUMO netedit 1.26.0
<neteditConfiguration xmlns:xsi="http://www.w3.org/2001/XMLSchema-instance" xsi:noNamespaceSchemaLocation="http://sumo.dlr.de/xsd/neteditConfiguration.xsd">

    <input>
        <sumo-net-file value="C:\Users\varun\Documents\PGA\parallel-ga-traffic\network\map.net.xml"/>
    </input>

    <output>
        <output-file value="C:\Users\varun\Documents\PGA\parallel-ga-traffic\network\map.net.xml"/>
    </output>

    <processing>
        <offset.disable-normalization value="true"/>
    </processing>

    <junctions>
        <no-turnarounds value="true"/>
    </junctions>

    <netedit>
        <new-network value="false"/>
    </netedit>

</neteditConfiguration>
-->

<net version="1.20" junctionCornerDetail="5" limitTurnSpeed="5.50" xmlns:xsi="http://www.w3.org/2001/XMLSchema-instance" xsi:noNamespaceSchemaLocation="http://sumo.dlr.de/xsd/net_file.xsd">

    <location netOffset="0.00,0.00" convBoundary="-47.20,-16.38,16.86,40.53" origBoundary="10000000000.00,10000000000.00,-10000000000.00,-10000000000.00" projParameter="!"/>

    <edge id=":J16_0" function="internal">
        <lane id=":J16_0_0" index="0" speed="6.49" length="9.03" shape="-2.62,15.94 -5.08,16.24 -6.85,17.25 -7.93,18.98 -8.32,21.43"/>
    </edge>
    <edge id=":J16_1" function="internal">
        <lane id=":J16_1_0" index="0" speed="13.89" length="20.98" shape="-2.62,15.94 -23.59,15.46"/>
        <lane id=":J16_1_1" index="1" speed="13.89" length="20.98" shape="-2.54,12.74 -23.51,12.26"/>
    </edge>
    <edge id=":J16_3" function="internal">
        <lane id=":J16_3_0" index="0" speed="9.36" length="4.98" shape="-2.54,12.74 -7.46,11.93"/>
    </edge>
    <edge id=":J16_16" function="internal">
        <lane id=":J16_16_0" index="0" speed="9.36" length="14.56" shape="-7.46,11.93 -7.80,11.87 -11.54,9.52 -13.78,5.69 -14.50,0.38"/>
    </edge>
    <edge id=":J16_4" function="internal">
        <lane id=":J16_4_0" index="0" speed="6.66" length="9.37" shape="-8.12,0.41 -7.76,2.96 -6.69,4.80 -4.90,5.93 -2.39,6.35"/>
    </edge>
    <edge id=":J16_5" function="internal">
        <lane id=":J16_5_0" index="0" speed="13.89" length="21.00" shape="-8.12,0.41 -8.32,21.43"/>
        <lane id=":J16_5_1" index="1" speed="13.89" length="21.00" shape="-11.32,0.39 -11.52,21.38"/>
    </edge>
    <edge id=":J16_7" function="internal">
        <lane id=":J16_7_0" index="0" speed="9.22" length="5.14" shape="-11.32,0.39 -12.06,5.48"/>
    </edge>
    <edge id=":J16_17" function="internal">
        <lane id=":J16_17_0" index="0" speed="9.22" length="14.35" shape="-12.06,5.48 -12.09,5.69 -14.38,9.44 -18.19,11.63 -23.51,12.26"/>
    </edge>
    <edge id=":J16_8" function="internal">
        <lane id=":J16_8_0" index="0" speed="6.47" length="9.03" shape="-23.36,5.86 -20.89,5.57 -19.13,4.55 -18.07,2.82 -17.70,0.36"/>
    </edge>
    <edge id=":J16_9" function="internal">
        <lane id=":J16_9_0" index="0" speed="13.89" length="20.97" shape="-23.36,5.86 -2.39,6.35"/>
        <lane id=":J16_9_1" index="1" speed="13.89" length="20.97" shape="-23.44,9.06 -2.47,9.55"/>
    </edge>
    <edge id=":J16_11" function="internal">
        <lane id=":J16_11_0" index="0" speed="9.32" length="5.02" shape="-23.44,9.06 -18.48,9.88"/>
    </edge>
    <edge id=":J16_18" function="internal">
        <lane id=":J16_18_0" index="0" speed="9.32" length="14.49" shape="-18.48,9.88 -18.15,9.94 -14.40,12.28 -12.19,16.10 -11.52,21.38"/>
    </edge>
    <edge id=":J16_12" function="internal">
        <lane id=":J16_12_0" index="0" speed="6.60" length="9.25" shape="-17.91,21.27 -18.23,18.78 -19.29,16.98 -21.07,15.87 -23.59,15.46"/>
    </edge>
    <edge id=":J16_13" function="internal">
        <lane id=":J16_13_0" index="0" speed="13.89" length="20.93" shape="-17.91,21.27 -17.70,0.36"/>
        <lane id=":J16_13_1" index="1" speed="13.89" length="20.93" shape="-14.71,21.33 -14.50,0.38"/>
    </edge>
    <edge id=":J16_15" function="internal">
        <lane id=":J16_15_0" index="0" speed="9.24" length="4.77" shape="-14.71,21.33 -13.96,16.61"/>
    </edge>
    <edge id=":J16_19" function="internal">
        <lane id=":J16_19_0" index="0" speed="9.24" length="14.63" shape="-13.96,16.61 -13.87,16.07 -11.56,12.36 -7.75,10.18 -2.47,9.55"/>
    </edge>

    <edge id="-E10" from="J17" to="J16" priority="-1" spreadType="center" shape="-16.60,40.53 -16.15,10.86">
        <lane id="-E10_0" index="0" speed="13.89" length="18.88" shape="-18.19,40.16 -17.91,21.27"/>
        <lane id="-E10_1" index="1" speed="13.89" length="18.88" shape="-14.99,40.21 -14.71,21.33"/>
    </edge>
    <edge id="-E11" from="J18" to="J16" priority="-1" spreadType="center" shape="-9.66,-16.38 -9.75,10.92">
        <lane id="-E11_0" index="0" speed="13.89" length="16.41" shape="-8.06,-16.00 -8.12,0.41"/>
        <lane id="-E11_1" index="1" speed="13.89" length="16.41" shape="-11.26,-16.01 -11.32,0.39"/>
    </edge>
    <edge id="-E12" from="J19" to="J16" priority="-1" spreadType="center" shape="16.86,14.78 -13.02,14.11">
        <lane id="-E12_0" index="0" speed="13.89" length="19.10" shape="16.48,16.37 -2.62,15.94"/>
        <lane id="-E12_1" index="1" speed="13.89" length="19.10" shape="16.55,13.17 -2.54,12.74"/>
    </edge>
    <edge id="-E13" from="J20" to="J16" priority="-1" spreadType="center" shape="-46.90,6.91 -12.87,7.71">
        <lane id="-E13_0" index="0" speed="13.89" length="23.35" shape="-46.71,5.31 -23.36,5.86"/>
        <lane id="-E13_1" index="1" speed="13.89" length="23.35" shape="-46.78,8.51 -23.44,9.06"/>
    </edge>
    <edge id="E10" from="J16" to="J17" priority="-1" spreadType="center" shape="-9.75,10.97 -10.22,40.45">
        <lane id="E10_0" index="0" speed="13.89" length="18.88" shape="-8.32,21.43 -8.62,40.31"/>
        <lane id="E10_1" index="1" speed="13.89" length="18.88" shape="-11.52,21.38 -11.82,40.26"/>
    </edge>
    <edge id="E11" from="J16" to="J18" priority="-1" spreadType="center" shape="-16.15,10.89 -16.03,-16.22">
        <lane id="E11_0" index="0" speed="13.89" length="16.41" shape="-17.70,0.36 -17.63,-16.04"/>
        <lane id="E11_1" index="1" speed="13.89" length="16.41" shape="-14.50,0.38 -14.43,-16.03"/>
    </edge>
    <edge id="E12" from="J16" to="J19" priority="-1" spreadType="center" shape="-12.87,7.71 16.83,8.40">
        <lane id="E12_0" index="0" speed="13.89" length="19.10" shape="-2.39,6.35 16.70,6.80"/>
        <lane id="E12_1" index="1" speed="13.89" length="19.10" shape="-2.47,9.55 16.63,10.00"/>
    </edge>
    <edge id="E13" from="J16" to="J20" priority="-1" spreadType="center" shape="-13.03,14.11 -47.20,13.29">
        <lane id="E13_0" index="0" speed="13.89" length="23.35" shape="-23.59,15.46 -46.93,14.90"/>
        <lane id="E13_1" index="1" speed="13.89" length="23.35" shape="-23.51,12.26 -46.86,11.70"/>
    </edge>

    <tlLogic id="J16" type="static" programID="0" offset="0">
        <phase duration="42" state="GGGgrrrrGGGgrrrr"/>
        <phase duration="3"  state="yyyyrrrryyyyrrrr"/>
        <phase duration="42" state="rrrrGGGgrrrrGGGg"/>
        <phase duration="3"  state="rrrryyyyrrrryyyy"/>
    </tlLogic>

    <junction id="J16" type="traffic_light" x="-12.95" y="10.91" incLanes="-E12_0 -E12_1 -E11_0 -E11_1 -E13_0 -E13_1 -E10_0 -E10_1" intLanes=":J16_0_0 :J16_1_0 :J16_1_1 :J16_16_0 :J16_4_0 :J16_5_0 :J16_5_1 :J16_17_0 :J16_8_0 :J16_9_0 :J16_9_1 :J16_18_0 :J16_12_0 :J16_13_0 :J16_13_1 :J16_19_0" shape="-2.65,17.54 -2.36,4.75 -4.67,4.23 -5.48,3.62 -6.06,2.78 -6.40,1.71 -6.52,0.41 -19.30,0.36 -19.76,2.57 -20.32,3.33 -21.10,3.87 -22.10,4.18 -23.32,4.26 -23.63,17.06 -21.31,17.57 -20.51,18.15 -19.94,18.96 -19.61,20.00 -19.51,21.25 -6.72,21.45 -6.24,19.24 -5.67,18.48 -4.88,17.94 -3.88,17.63">
        <request index="0"  response="0000000000000000" foes="0000000001100000" cont="0"/>
        <request index="1"  response="1000000000000000" foes="1111100011100000" cont="0"/>
        <request index="2"  response="1000000010000000" foes="1111100011100000" cont="0"/>
        <request index="3"  response="1000011010000000" foes="1110011011100000" cont="1"/>
        <request index="4"  response="0000011000000000" foes="0000011000000000" cont="0"/>
        <request index="5"  response="0000111000001111" foes="1000111000001111" cont="0"/>
        <request index="6"  response="0000111000001111" foes="1000111000001111" cont="0"/>
        <request index="7"  response="0110111000001110" foes="0110111000001110" cont="1"/>
        <request index="8"  response="0000000000000000" foes="0110000000000000" cont="0"/>
        <request index="9"  response="0000000010000000" foes="1110000011111000" cont="0"/>
        <request index="10" response="1000000010000000" foes="1110000011111000" cont="0"/>
        <request index="11" response="1000000010000110" foes="1110000011100110" cont="1"/>
        <request index="12" response="0000000000000110" foes="0000000000000110" cont="0"/>
        <request index="13" response="0000111100001110" foes="0000111110001110" cont="0"/>
        <request index="14" response="0000111100001110" foes="0000111110001110" cont="0"/>
        <request index="15" response="0000111001101110" foes="0000111001101110" cont="1"/>
    </junction>
    <junction id="J17" type="dead_end" x="-13.41" y="40.23" incLanes="E10_0 E10_1" intLanes="" shape="-13.40,40.23 -19.79,40.13 -7.02,40.33"/>
    <junction id="J18" type="dead_end" x="-12.84" y="-16.02" incLanes="E11_0 E11_1" intLanes="" shape="-12.86,-16.02 -6.46,-16.00 -19.23,-16.05"/>
    <junction id="J19" type="dead_end" x="16.59" y="11.59" incLanes="E12_0 E12_1" intLanes="" shape="16.59,11.57 16.45,17.97 16.74,5.20"/>
    <junction id="J20" type="dead_end" x="-46.82" y="10.11" incLanes="E13_0 E13_1" intLanes="" shape="-46.82,10.11 -46.67,3.71 -46.97,16.50"/>

    <junction id=":J16_16_0" type="internal" x="-7.46" y="11.93" incLanes=":J16_3_0 -E13_0 -E13_1" intLanes=":J16_5_0 :J16_5_1 :J16_7_0 :J16_8_0 :J16_9_0 :J16_9_1 :J16_13_0 :J16_13_1 :J16_15_0"/>
    <junction id=":J16_17_0" type="internal" x="-12.06" y="5.48" incLanes=":J16_7_0 -E10_0 -E10_1" intLanes=":J16_1_0 :J16_1_1 :J16_3_0 :J16_9_0 :J16_9_1 :J16_11_0 :J16_12_0 :J16_13_0 :J16_13_1"/>
    <junction id=":J16_18_0" type="internal" x="-18.48" y="9.88" incLanes=":J16_11_0 -E12_0 -E12_1" intLanes=":J16_0_0 :J16_1_0 :J16_1_1 :J16_5_0 :J16_5_1 :J16_7_0 :J16_13_0 :J16_13_1 :J16_15_0"/>
    <junction id=":J16_19_0" type="internal" x="-13.96" y="16.61" incLanes=":J16_15_0 -E11_0 -E11_1" intLanes=":J16_1_0 :J16_1_1 :J16_3_0 :J16_4_0 :J16_5_0 :J16_5_1 :J16_9_0 :J16_9_1 :J16_11_0"/>

    <connection from="-E10" to="E13" fromLane="0" toLane="0" via=":J16_12_0" tl="J16" linkIndex="12" dir="r" state="o"/>
    <connection from="-E10" to="E11" fromLane="0" toLane="0" via=":J16_13_0" tl="J16" linkIndex="13" dir="s" state="o"/>
    <connection from="-E10" to="E11" fromLane="1" toLane="1" via=":J16_13_1" tl="J16" linkIndex="14" dir="s" state="o"/>
    <connection from="-E10" to="E12" fromLane="1" toLane="1" via=":J16_15_0" tl="J16" linkIndex="15" dir="l" state="o"/>
    <connection from="-E11" to="E12" fromLane="0" toLane="0" via=":J16_4_0" tl="J16" linkIndex="4" dir="r" state="o"/>
    <connection from="-E11" to="E10" fromLane="0" toLane="0" via=":J16_5_0" tl="J16" linkIndex="5" dir="s" state="o"/>
    <connection from="-E11" to="E10" fromLane="1" toLane="1" via=":J16_5_1" tl="J16" linkIndex="6" dir="s" state="o"/>
    <connection from="-E11" to="E13" fromLane="1" toLane="1" via=":J16_7_0" tl="J16" linkIndex="7" dir="l" state="o"/>
    <connection from="-E12" to="E10" fromLane="0" toLane="0" via=":J16_0_0" tl="J16" linkIndex="0" dir="r" state="O"/>
    <connection from="-E12" to="E13" fromLane="0" toLane="0" via=":J16_1_0" tl="J16" linkIndex="1" dir="s" state="O"/>
    <connection from="-E12" to="E13" fromLane="1" toLane="1" via=":J16_1_1" tl="J16" linkIndex="2" dir="s" state="O"/>
    <connection from="-E12" to="E11" fromLane="1" toLane="1" via=":J16_3_0" tl="J16" linkIndex="3" dir="l" state="o"/>
    <connection from="-E13" to="E11" fromLane="0" toLane="0" via=":J16_8_0" tl="J16" linkIndex="8" dir="r" state="O"/>
    <connection from="-E13" to="E12" fromLane="0" toLane="0" via=":J16_9_0" tl="J16" linkIndex="9" dir="s" state="O"/>
    <connection from="-E13" to="E12" fromLane="1" toLane="1" via=":J16_9_1" tl="J16" linkIndex="10" dir="s" state="O"/>
    <connection from="-E13" to="E10" fromLane="1" toLane="1" via=":J16_11_0" tl="J16" linkIndex="11" dir="l" state="o"/>

    <connection from=":J16_0" to="E10" fromLane="0" toLane="0" dir="r" state="M"/>
    <connection from=":J16_1" to="E13" fromLane="0" toLane="0" dir="s" state="M"/>
    <connection from=":J16_1" to="E13" fromLane="1" toLane="1" dir="s" state="M"/>
    <connection from=":J16_3" to="E11" fromLane="0" toLane="1" via=":J16_16_0" dir="l" state="m"/>
    <connection from=":J16_16" to="E11" fromLane="0" toLane="1" dir="l" state="M"/>
    <connection from=":J16_4" to="E12" fromLane="0" toLane="0" dir="r" state="M"/>
    <connection from=":J16_5" to="E10" fromLane="0" toLane="0" dir="s" state="M"/>
    <connection from=":J16_5" to="E10" fromLane="1" toLane="1" dir="s" state="M"/>
    <connection from=":J16_7" to="E13" fromLane="0" toLane="1" via=":J16_17_0" dir="l" state="m"/>
    <connection from=":J16_17" to="E13" fromLane="0" toLane="1" dir="l" state="M"/>
    <connection from=":J16_8" to="E11" fromLane="0" toLane="0" dir="r" state="M"/>
    <connection from=":J16_9" to="E12" fromLane="0" toLane="0" dir="s" state="M"/>
    <connection from=":J16_9" to="E12" fromLane="1" toLane="1" dir="s" state="M"/>
    <connection from=":J16_11" to="E10" fromLane="0" toLane="1" via=":J16_18_0" dir="l" state="m"/>
    <connection from=":J16_18" to="E10" fromLane="0" toLane="1" dir="l" state="M"/>
    <connection from=":J16_12" to="E13" fromLane="0" toLane="0" dir="r" state="M"/>
    <connection from=":J16_13" to="E11" fromLane="0" toLane="0" dir="s" state="M"/>
    <connection from=":J16_13" to="E11" fromLane="1" toLane="1" dir="s" state="M"/>
    <connection from=":J16_15" to="E12" fromLane="0" toLane="1" via=":J16_19_0" dir="l" state="m"/>
    <connection from=":J16_19" to="E12" fromLane="0" toLane="1" dir="l" state="M"/>

</net>
