<configuration>
    <input>
        <net-file value="map.net.xml"/>
        <route-files value="accident.rou.xml"/> </input>
    <time>
        <begin value="0"/>
        <end value="3600"/>
    </time>
</configuration>