<configuration>
    <input>
        <net-file value="map.net.xml"/>
        <route-files value="accident.rou.xml"/> 
    </input>
    <time>
        <begin value="0"/>
        <end value="3600"/>
    </time>
    <output>
        <tripinfo-output value="tripinfo_output.xml"/>
    </output>
</configuration>